Cases/Exam.txt
( TITULO DO CASO
TITU
**** Sistema IEEE de 14 barras ****     ieee14_CEEE
(DADOS ESPECÍFICOS P/ ESTIMAÇÃO DE ESTADOS:
(============================================================
(   0    |    1    |    2    |    3    |    4    |    5    |
(23456789012345678901234567890123456789012345678901234567890
( NB)( NL)(NIP)(NIQ)(NFP)(NFQ)(NMV)(PIP)(PIQ)(PFP)(PFQ)(PMV)(UTR)(PMU)     descri��o: 0-n�o tem medida nem pseudo; 1-tem medida; 2-tem pseudo; 3-tem medida e pseudo
(  14   20   14   14   40   40   14    0    0    0    0    0   14   14                               
DBAR
( DADOS DE BARRAS CA PARA FLUXO DE CARGA E ESTIMA��O DE ESTADOS (A PARTIR DA COLUNA 80)
(===============================================================================================================================================
(   0    |    1    |    2    |    3    |    4    |    5    |    6    |    7    |    8    |    9    |   10    |   11    |   12    |   13    |                                                       
(234567890123456789012345678901234567890123456789012345678901234567890123456789012345678901234567890123456789012345678901234567890112345678901
(No) O TB(   nome   )G( V)( A)( Pg)( Qg)( Qn)( Qm)( Bc)( Pl)( Ql)( Sh)(A(Vc)|||TP(  P  )(desP)TQ(  Q  )(desQ)TV(  V  )(desV)(UTR)( T )(PMU)  
   1   2  Bus_1  HV1  1000  0                            0.0  0.0      1      ( 11.72393.03    1-.16549.03    11020.00.002      1    0    1
   2   0  Bus_2  HV1  1000     40.0      -40. 50.       21.7 12.7      1      ( 1.183000.03    1.308571.03    11045.00.002      2    0    2
   3   0  Bus_3  HV1  1000      0.0        0. 40.       94.2 19.0      1      ( 0              0              11010.00.002      3    0    3
   4   0  Bus_4  HV1  1000                              47.8 -3.9      1      ( 0              0              0                 4    0    4
   5   0  Bus_5  HV1  1000                               7.6  1.6      1      ( 1-.07600.03    1-.01600.03    0                 5    0    5
   6   0  Bus_6  LV1  1000      0.0      -6.0 24.       11.2  7.5      1      ( 0              0              11070.00.002      6    0    6
   7   0  Bus_7  LV1  1000                               0.0  0.0      1      ( 1.000000.001   1.000000.001   0                 7    0    7
   8   0  Bus_8  TV1  1000      0.0      -6.0 24.        0.0  0.0      1      ( 1.000000.001   1.176235.03    11090.00.002      8    0    8
   9   0  Bus_9  LV1  1000                              29.5 16.6 19.0 1      ( 1-.29500.03    1-.16600.03    0                 9    0    9
  10   0  Bus_10 LV1  1000                               9.0  5.8      1      ( 0              0              0                10    0   10
  11   0  Bus_11 LV1  1000                               3.5  1.8      1      ( 0              0              0                11    0   11
  12   0  Bus_12 LV1  1000                               6.1  1.6      1      ( 0              0              11055.19.002     12    0   12
  13   0  Bus_13 LV1  1000                              13.5  5.8      1      ( 1-.13500.03    1-.05800.03    0                13    0   13
  14   0  Bus_14 LV1  1000                              14.9  5.0      1      ( 1-.14900.03    1-.05000.03    0                14    0   14
9999
DLIN
( DADOS DE LINHAS CA PARA FLUXO DE CARGA E ESTIMA��O DE ESTADOS (A PARTIR DA COLUNA 80)
(=============================================================================================================================================================================================
(   0    |    1    |    2    |    3    |    4    |    5    |    6    |    7    |    8    |    9    |   10    |   11    |   12    |   13    |   14    |   15    |   16    |   17    |   18    |                                                        
(234567890123456789012345678901234567890123456789012345678901234567890123456789012345678901234567890123456789012345678901234567890123456789012345678901234567890123456789012345678901234567890
(De) O  (Pa)NcEP ( R% )( X% )(MVAR)(Tap)(Tmn)(Tmx)(Phs)( Bc)(Cn)(Ce)     (k=>m)TP(  P  )(desP)TQ(  Q  )(desQ)(m=>k)TP(  P  )(desP)TQ(  Q  )(desQ)(k=>m)TC( PMU )(desC)(m=>k)TC( PMU )(desC)
   1       2 1    1.938 5.917  5.28                                           ( 11.56883.03    1-.20404.03          0              0
   1       5 1    5.40322.304  4.92                                           ( 0              0                    0              0
   2       3 1    4.69919.797  4.38                                           ( 1.732376.03    1.035602.03          0              0
   2       4 1    5.81117.632  3.40                                           ( 0              0                    1-.54455.03    1.030207.03
   2       5 1    5.69517.388  3.46                                           ( 0              0                    1-.40613.03    1-.02099.03
   3       4 1    6.70117.103  1.28                                           ( 1-.23286.03    1.044731.03          0              0
   4       5 1    1.335 4.211                                                 ( 1-.61158.03    1.158236.03          0              0
   4       7 1         20.912      0.978                                      ( 0              0                    1-.28074.03    1.113843.03
   4       9 1         55.618      0.969                                      ( 0              0                    1-.16080.03    1.017323.03
   5       6 1         25.202      0.932                                      ( 1.440873.03    1.124707.03          1-.44087.03    1-.08050.03
   6      11 1    9.49819.890                                                 ( 1.073533.03    1.035605.03          1-.07298.03    1-.03445.03
   6      12 1   12.29125.581                                                 ( 1.077861.03    1.025034.03          0              0
   6      13 1    6.61513.027                                                 ( 1.177480.03    1.072166.03          1-.17536.03    1-.06799.03
   7       8 1         17.615                                                 ( 1.000000.001   1-.17163.03          1.000000.001   1.176235.03
   7       9 1         11.001                                                 ( 1.280742.03    1.057787.03          0              0
   9      10 1    3.181 8.450                                                 ( 1.052276.03    1.042191.03          1-.05215.03    1-.04185.03
   9      14 1   12.71127.038                                                 ( 1.094264.03    1.036100.03          0              0
  10      11 1    8.20519.207                                                 ( 1-.03785.03    1-.01615.03          0              0
  12      13 1   22.09219.988                                                 ( 1.016143.03    1.007540.03          0              0
  13      14 1   17.09334.802                                                 ( 0              0                    1-.05590.03    1-.01637.03
9999
FIM
